/PSS(R)E 35
COM
COM MONITORED element file entry created by PSS(R)E Config File Builder
COM
MONITOR VOLTAGE RANGE SUBSYSTEM 'WOA' 0.950 1.050
MONITOR BRANCHES IN SUBSYSTEM 'WOA'
MONITOR TIES FROM SUBSYSTEM 'WOA'
END
