/PSS(R)E 35
COM
COM SUBSYSTEM description file entry created by PSS(R)E Config File Builder
COM
SUBSYSTEM 'WOA'
   AREA 1
END
END
